# CIF file created by FINDSYM, version 6.0

data_findsym-output
_audit_creation_method FINDSYM
 
_cell_length_a    5.7702000000
_cell_length_b    14.7416000000
_cell_length_c    10.3932000000
_cell_angle_alpha 90.0000000000
_cell_angle_beta  91.2162000000
_cell_angle_gamma 90.0000000000
_cell_volume      883.8670133633
 
_symmetry_space_group_name_H-M "P 1 c 1"
_symmetry_Int_Tables_number 7
_space_group.reference_setting '007:P -2yc'
_space_group.transform_Pp_abc a,b,c;0,0,0
 
loop_
_space_group_symop_id
_space_group_symop_operation_xyz
1 x,y,z
2 x,-y,z+1/2
 
loop_
_atom_site_label
_atom_site_type_symbol
_atom_site_symmetry_multiplicity
_atom_site_Wyckoff_label
_atom_site_fract_x
_atom_site_fract_y
_atom_site_fract_z
_atom_site_occupancy
_atom_site_fract_symmform
C1  C    2 a 0.45535  0.46250  0.74240  1.00000 Dx,Dy,Dz 
C2  C    2 a 0.54460  -0.03850 0.75760  1.00000 Dx,Dy,Dz 
C3  C    2 a 0.25755  0.39500  0.74355  1.00000 Dx,Dy,Dz 
C4  C    2 a 0.74245  0.89400  0.75645  1.00000 Dx,Dy,Dz 
C5  C    2 a 0.73475  0.55600  0.80800  1.00000 Dx,Dy,Dz 
C6  C    2 a 0.74205  0.44900  0.17430  1.00000 Dx,Dy,Dz 
C7  C    2 a 0.26530  0.05500  0.69200  1.00000 Dx,Dy,Dz 
C8  C    2 a 0.25790  -0.05000 0.32570  1.00000 Dx,Dy,Dz 
C9  C    2 a -0.09030 0.60050  0.60470  1.00000 Dx,Dy,Dz 
C10 C    2 a 0.89480  0.39050  0.37630  1.00000 Dx,Dy,Dz 
C11 C    2 a 0.09030  0.09950  0.89530  1.00000 Dx,Dy,Dz 
C12 C    2 a 0.10525  0.89150  0.12370  1.00000 Dx,Dy,Dz 
C13 C    2 a 0.06915  0.65400  0.67245  1.00000 Dx,Dy,Dz 
C14 C    2 a 0.06175  0.34150  0.30735  1.00000 Dx,Dy,Dz 
C15 C    2 a -0.06915 0.15300  0.82760  1.00000 Dx,Dy,Dz 
C16 C    2 a -0.06175 0.84250  0.19265  1.00000 Dx,Dy,Dz 
Cl1 Cl   2 a 0.72020  0.78450  0.41100  1.00000 Dx,Dy,Dz 
Cl2 Cl   2 a 0.73670  0.77500  0.11085  1.00000 Dx,Dy,Dz 
Cl3 Cl   2 a 0.27980  0.28350  0.08900  1.00000 Dx,Dy,Dz 
Cl4 Cl   2 a 0.26335  0.27400  0.38915  1.00000 Dx,Dy,Dz 
H1  H    2 a 0.88980  0.61200  -0.03460 1.00000 Dx,Dy,Dz 
H2  H    2 a -0.08555 0.40250  0.01570  1.00000 Dx,Dy,Dz 
H3  H    2 a 0.11025  0.11100  0.53460  1.00000 Dx,Dy,Dz 
H4  H    2 a 0.08555  -0.09650 0.48430  1.00000 Dx,Dy,Dz 
H5  H    2 a 0.27045  0.35400  0.67150  1.00000 Dx,Dy,Dz 
H6  H    2 a 0.26230  0.64100  0.32100  1.00000 Dx,Dy,Dz 
H7  H    2 a 0.72950  0.85300  0.82845  1.00000 Dx,Dy,Dz 
H8  H    2 a 0.73770  0.14200  0.17905  1.00000 Dx,Dy,Dz 
H9  H    2 a 0.11190  0.42800  0.73890  1.00000 Dx,Dy,Dz 
H10 H    2 a 0.48700  0.51700  0.04600  1.00000 Dx,Dy,Dz 
H11 H    2 a 0.51500  0.01700  0.04600  1.00000 Dx,Dy,Dz 
H12 H    2 a 0.88805  -0.07300 0.76110  1.00000 Dx,Dy,Dz 
N1  N    2 a 0.55265  0.49950  0.84880  1.00000 Dx,Dy,Dz 
N2  N    2 a 0.56440  0.50800  0.13510  1.00000 Dx,Dy,Dz 
N3  N    2 a 0.44735  -0.00150 0.65120  1.00000 Dx,Dy,Dz 
N4  N    2 a 0.43560  0.00900  0.36490  1.00000 Dx,Dy,Dz 
 
# end of cif
